  
       XFOIL         Version 6.96
  
 Calculated polar for: AH 93-W-480B                                    
  
 1 1 Reynolds number fixed          Mach number fixed         
  
 xtrf =   1.000 (top)        1.000 (bottom)  
 Mach =   0.000     Re =     0.500 e 6     Ncrit =   9.000
  
   alpha    CL        CD       CDp       CM     Top_Xtr  Bot_Xtr
  ------ -------- --------- --------- -------- -------- --------
 -19.750  -1.6394   0.11755   0.11217   0.1413   0.9990   0.3131
 -19.500  -1.6455   0.11512   0.10965   0.1428   0.9990   0.3172
 -19.250  -1.6583   0.11207   0.10644   0.1451   0.9990   0.3203
 -19.000  -1.6389   0.11209   0.10652   0.1441   0.9990   0.3235
 -18.750  -1.6325   0.11089   0.10535   0.1445   0.9990   0.3274
 -18.500  -1.6250   0.10970   0.10414   0.1448   0.9990   0.3300
 -18.250  -1.6243   0.10784   0.10222   0.1458   0.9990   0.3337
 -18.000  -1.6290   0.10554   0.09981   0.1476   0.9990   0.3371
 -17.750  -1.6231   0.10419   0.09840   0.1482   0.9990   0.3400
 -17.500  -1.6084   0.10371   0.09797   0.1479   0.9990   0.3435
 -17.250  -1.6022   0.10239   0.09665   0.1486   0.9990   0.3472
 -17.000  -1.5997   0.10071   0.09493   0.1497   0.9990   0.3505
 -16.750  -1.5957   0.09909   0.09325   0.1508   0.9990   0.3541
 -16.500  -1.5997   0.09674   0.09077   0.1529   0.9990   0.3574
 -16.250  -1.5845   0.09627   0.09033   0.1526   0.9990   0.3611
 -16.000  -1.5764   0.09512   0.08921   0.1534   0.9990   0.3651
 -15.750  -1.5704   0.09369   0.08777   0.1544   0.9990   0.3692
 -15.500  -1.5652   0.09215   0.08617   0.1555   0.9990   0.3724
 -15.250  -1.5612   0.09047   0.08440   0.1570   0.9990   0.3759
 -15.000  -1.5505   0.08942   0.08332   0.1574   0.9990   0.3793
 -14.750  -1.5407   0.08845   0.08239   0.1582   0.9990   0.3835
 -14.500  -1.5348   0.08703   0.08096   0.1595   0.9990   0.3874
 -14.250  -1.5269   0.08566   0.07956   0.1606   0.9990   0.3914
 -14.000  -1.5226   0.08395   0.07777   0.1623   0.9990   0.3955
 -13.750  -1.5133   0.08268   0.07644   0.1633   0.9990   0.3988
 -13.500  -1.5012   0.08188   0.07569   0.1639   0.9990   0.4033
 -13.250  -1.4947   0.08049   0.07431   0.1655   0.9990   0.4077
 -13.000  -1.4885   0.07897   0.07276   0.1672   0.9990   0.4127
 -12.750  -1.4777   0.07772   0.07145   0.1682   0.9990   0.4161
 -12.500  -1.4678   0.07643   0.07011   0.1693   0.9990   0.4200
 -12.250  -1.4569   0.07547   0.06919   0.1704   0.9990   0.4246
 -12.000  -1.4513   0.07396   0.06768   0.1726   0.9990   0.4300
 -11.750  -1.4401   0.07271   0.06641   0.1737   0.9990   0.4345
 -11.500  -1.4285   0.07139   0.06502   0.1747   0.9990   0.4385
 -11.250  -1.4168   0.07031   0.06395   0.1759   0.9990   0.4438
 -11.000  -1.3862   0.06708   0.06079   0.1727   0.9928   0.4481
 -10.750  -1.3786   0.06644   0.06012   0.1747   0.9748   0.4535
 -10.500  -1.3620   0.06519   0.05880   0.1748   0.9623   0.4587
 -10.250  -1.3427   0.06405   0.05757   0.1744   0.9491   0.4625
 -10.000  -1.3293   0.06285   0.05640   0.1755   0.9361   0.4687
  -9.750  -1.3166   0.06156   0.05508   0.1770   0.9221   0.4747
  -9.500  -1.3004   0.06057   0.05403   0.1778   0.9063   0.4795
  -9.250  -1.2830   0.05950   0.05284   0.1784   0.8906   0.4840
  -9.000  -1.5548   0.06753   0.06024   0.2536   0.9614   0.5037
  -8.750  -1.5234   0.06678   0.05943   0.2510   0.9435   0.5086
  -8.500  -1.4987   0.06583   0.05852   0.2502   0.9245   0.5153
  -8.250  -1.4711   0.06498   0.05766   0.2487   0.9075   0.5211
  -8.000  -1.4423   0.06423   0.05685   0.2468   0.8908   0.5269
  -7.750  -1.4102   0.06350   0.05603   0.2441   0.8751   0.5313
  -7.500  -1.3838   0.06264   0.05520   0.2429   0.8579   0.5390
  -7.250  -1.3528   0.06185   0.05439   0.2404   0.8434   0.5452
  -7.000  -1.3197   0.06113   0.05358   0.2374   0.8257   0.5510
  -6.750  -1.2866   0.06049   0.05285   0.2343   0.8113   0.5560
  -6.500  -1.2560   0.05978   0.05216   0.2319   0.7967   0.5628
  -6.250  -1.2239   0.05909   0.05143   0.2292   0.7831   0.5691
  -6.000  -1.1928   0.05856   0.05086   0.2267   0.7704   0.5751
  -5.750  -1.1598   0.05801   0.05021   0.2237   0.7583   0.5802
  -5.500  -1.1298   0.05745   0.04969   0.2216   0.7467   0.5880
  -5.250  -1.0991   0.05704   0.04930   0.2192   0.7369   0.5940
  -5.000  -1.0678   0.05656   0.04875   0.2168   0.7253   0.6007
  -4.750  -1.0344   0.05612   0.04823   0.2137   0.7132   0.6064
  -4.500  -1.0043   0.05583   0.04802   0.2116   0.7051   0.6131
  -4.250  -0.9725   0.05552   0.04771   0.2090   0.6960   0.6190
  -4.000  -0.9406   0.05515   0.04727   0.2064   0.6854   0.6254
  -3.750  -0.9080   0.05478   0.04681   0.2036   0.6751   0.6303
  -3.500  -0.8754   0.05465   0.04678   0.2008   0.6685   0.6372
  -3.250  -0.8442   0.05435   0.04651   0.1984   0.6603   0.6444
  -3.000  -0.8120   0.05407   0.04618   0.1958   0.6509   0.6506
  -2.750  -0.7797   0.05370   0.04570   0.1930   0.6405   0.6558
  -2.500  -0.7454   0.05367   0.04578   0.1898   0.6351   0.6626
  -2.250  -0.7132   0.05348   0.04563   0.1872   0.6267   0.6696
  -2.000  -0.6814   0.05321   0.04532   0.1847   0.6189   0.6764
  -1.750  -0.6492   0.05290   0.04492   0.1820   0.6100   0.6813
  -1.500  -0.6134   0.05292   0.04501   0.1784   0.6029   0.6887
  -1.250  -0.5798   0.05282   0.04496   0.1753   0.5963   0.6951
  -1.000  -0.5478   0.05259   0.04472   0.1728   0.5879   0.7023
  -0.750  -0.5158   0.05231   0.04437   0.1702   0.5806   0.7075
  -0.500  -0.4789   0.05237   0.04445   0.1663   0.5716   0.7146
  -0.250  -0.4450   0.05229   0.04445   0.1632   0.5660   0.7217
   0.000  -0.4119   0.05212   0.04428   0.1604   0.5594   0.7285
   0.250  -0.3803   0.05185   0.04394   0.1580   0.5516   0.7344
   0.500  -0.3429   0.05197   0.04408   0.1539   0.5429   0.7420
   0.750  -0.3087   0.05189   0.04407   0.1507   0.5374   0.7494
   1.000  -0.2759   0.05171   0.04389   0.1480   0.5312   0.7563
   1.250  -0.2412   0.05164   0.04381   0.1447   0.5239   0.7626
   1.500  -0.2047   0.05173   0.04391   0.1409   0.5152   0.7700
   1.750  -0.1699   0.05167   0.04387   0.1376   0.5091   0.7772
   2.000  -0.1392   0.05137   0.04358   0.1355   0.5033   0.7849
   2.250  -0.1009   0.05157   0.04385   0.1313   0.4961   0.7932
   2.500  -0.0657   0.05157   0.04384   0.1279   0.4891   0.8008
   2.750  -0.0344   0.05132   0.04353   0.1255   0.4815   0.8086
   3.000   0.0054   0.05158   0.04389   0.1209   0.4758   0.8158
   3.250   0.0414   0.05163   0.04398   0.1173   0.4692   0.8244
   3.500   0.0754   0.05156   0.04390   0.1143   0.4624   0.8331
   3.750   0.1146   0.05184   0.04420   0.1098   0.4542   0.8425
   4.000   0.1495   0.05181   0.04423   0.1065   0.4493   0.8522
   4.250   0.1939   0.05235   0.04483   0.1006   0.4422   0.8604
   4.500   0.2333   0.05261   0.04509   0.0960   0.4351   0.8696
   4.750   0.2810   0.05335   0.04584   0.0892   0.4270   0.8767
   5.000   0.3266   0.05394   0.04651   0.0829   0.4203   0.8855
   5.250   0.3790   0.05493   0.04753   0.0748   0.4134   0.8915
   5.500   0.4269   0.05571   0.04827   0.0679   0.4050   0.8980
   5.750   0.4801   0.05675   0.04938   0.0596   0.3981   0.9028
   6.000   0.5297   0.05763   0.05025   0.0523   0.3885   0.9082
   6.250   0.5786   0.05852   0.05108   0.0451   0.3802   0.9119
   6.500   0.6274   0.05931   0.05193   0.0381   0.3748   0.9153
   6.750   0.6733   0.05999   0.05261   0.0319   0.3678   0.9195
   7.000   0.7186   0.06069   0.05325   0.0258   0.3592   0.9217
   7.250   0.7631   0.06131   0.05387   0.0200   0.3533   0.9244
   7.500   0.8063   0.06186   0.05443   0.0146   0.3465   0.9279
   7.750   0.8481   0.06238   0.05490   0.0095   0.3400   0.9306
   8.000   0.8882   0.06284   0.05532   0.0049   0.3336   0.9334
   8.250   0.9281   0.06322   0.05572   0.0004   0.3279   0.9375
   8.500   0.9671   0.06357   0.05606  -0.0038   0.3230   0.9412
   8.750   1.0032   0.06386   0.05630  -0.0074   0.3175   0.9474
   9.000   1.0075   0.06508   0.05744  -0.0032   0.3125   0.9754
   9.250   1.0491   0.06540   0.05778  -0.0081   0.3079   0.9764
   9.500   1.0900   0.06575   0.05810  -0.0129   0.3018   0.9775
   9.750   1.1271   0.06641   0.05870  -0.0169   0.2964   0.9804
  10.000   1.1681   0.06671   0.05899  -0.0217   0.2916   0.9813
  10.250   1.2067   0.06733   0.05962  -0.0259   0.2864   0.9843
  10.500   1.2477   0.06753   0.05979  -0.0307   0.2814   0.9850
  10.750   1.2867   0.06793   0.06014  -0.0350   0.2764   0.9865
  11.000   1.3260   0.06840   0.06061  -0.0394   0.2720   0.9888
  11.250   1.3664   0.06860   0.06083  -0.0440   0.2679   0.9901
  11.500   1.4060   0.06913   0.06134  -0.0485   0.2630   0.9927
  11.750   1.4442   0.06948   0.06162  -0.0527   0.2574   0.9940
  12.000   1.4843   0.07151   0.06365  -0.0574   0.2540   0.9966
  12.250   1.5227   0.07088   0.06304  -0.0613   0.2494   0.9967
  12.500   1.5602   0.07064   0.06277  -0.0652   0.2445   0.9968
  12.750   1.5957   0.07079   0.06286  -0.0686   0.2395   0.9970
  13.000   1.6270   0.07205   0.06414  -0.0711   0.2361   0.9979
  13.250   1.6615   0.07137   0.06347  -0.0741   0.2317   0.9981
  13.500   1.6941   0.07126   0.06333  -0.0768   0.2271   0.9984
  13.750   1.7238   0.07153   0.06355  -0.0789   0.2226   0.9989
  14.000   1.7562   0.07163   0.06370  -0.0815   0.2189   0.9995
  14.250   1.7859   0.07200   0.06406  -0.0835   0.2144   1.0002
  14.500   1.8113   0.07269   0.06472  -0.0847   0.2100   1.0009
  14.750   1.8268   0.07350   0.06552  -0.0837   0.2057   1.0010
  15.000   1.8410   0.07423   0.06629  -0.0822   0.2027   1.0010
  15.250   1.8442   0.07578   0.06787  -0.0786   0.1992   1.0010
  15.500   1.8038   0.08049   0.07269  -0.0666   0.1967   1.0010
  15.750   1.7757   0.08519   0.07745  -0.0587   0.1938   1.0010
  16.000   1.7670   0.08847   0.08080  -0.0547   0.1907   1.0010
  16.250   1.7608   0.09166   0.08407  -0.0515   0.1874   1.0010
  16.500   1.7525   0.09514   0.08761  -0.0485   0.1846   1.0010
  16.750   1.7387   0.09925   0.09174  -0.0452   0.1813   1.0010
  17.000   1.7282   0.10306   0.09560  -0.0426   0.1781   1.0010
  17.250   1.7270   0.10595   0.09857  -0.0412   0.1753   1.0010
  17.500   1.7196   0.10950   0.10218  -0.0394   0.1726   1.0010
  17.750   1.7103   0.11323   0.10594  -0.0376   0.1697   1.0010
  18.000   1.6992   0.11721   0.10994  -0.0360   0.1673   1.0010
  18.250   1.6944   0.12058   0.11338  -0.0350   0.1645   1.0010
  18.500   1.6936   0.12362   0.11648  -0.0346   0.1619   1.0010
  18.750   1.6929   0.12658   0.11948  -0.0342   0.1600   1.0010
  19.000   1.6843   0.13053   0.12346  -0.0336   0.1572   1.0010
  19.250   1.6775   0.13419   0.12711  -0.0332   0.1547   1.0010
