  
       XFOIL         Version 6.96
  
 Calculated polar for: AH 81-K-144 W-F KLAPPE                          
  
 1 1 Reynolds number fixed          Mach number fixed         
  
 xtrf =   1.000 (top)        1.000 (bottom)  
 Mach =   0.000     Re =     0.050 e 6     Ncrit =   9.000
  
   alpha    CL        CD       CDp       CM     Top_Xtr  Bot_Xtr
  ------ -------- --------- --------- -------- -------- --------
 -15.250  -0.4503   0.18652   0.17825   0.0339   1.0000   0.2641
 -15.000  -0.4436   0.18448   0.17626   0.0327   1.0000   0.2708
 -14.750  -0.4737   0.18991   0.18168   0.0300   1.0000   0.2751
 -14.500  -0.4378   0.17941   0.17128   0.0299   1.0000   0.2778
 -14.250  -0.4162   0.17482   0.16676   0.0298   1.0000   0.2829
 -14.000  -0.4080   0.17255   0.16455   0.0290   1.0000   0.2907
 -13.750  -0.4413   0.17706   0.16906   0.0267   1.0000   0.2963
 -13.500  -0.3965   0.16677   0.15890   0.0268   1.0000   0.3003
 -13.250  -0.3785   0.16322   0.15546   0.0266   1.0000   0.3074
 -13.000  -0.4108   0.16806   0.16028   0.0250   1.0000   0.3172
 -12.750  -0.3738   0.15883   0.15124   0.0244   1.0000   0.3208
 -12.500  -0.3496   0.15455   0.14712   0.0241   1.0000   0.3277
 -12.250  -0.3685   0.15694   0.14955   0.0231   1.0000   0.3389
 -12.000  -0.3453   0.15067   0.14349   0.0219   1.0000   0.3426
 -11.750  -0.2720   0.14234   0.13396   0.0105   0.6077   0.3539
 -11.500  -0.3017   0.14573   0.13732   0.0095   0.6058   0.3630
 -11.250  -0.2391   0.13660   0.12759   0.0041   0.5627   0.3680
 -11.000  -0.2099   0.13335   0.12400   0.0007   0.5465   0.3775
 -10.750  -0.2313   0.13555   0.12619  -0.0003   0.5427   0.3862
 -10.500  -0.1708   0.12768   0.11801  -0.0055   0.5242   0.3922
 -10.250  -0.1483   0.12531   0.11558  -0.0080   0.5150   0.4021
 -10.000  -0.1584   0.12604   0.11629  -0.0093   0.5123   0.4096
  -9.750  -0.1034   0.11973   0.10979  -0.0145   0.5018   0.4153
  -9.500  -0.0789   0.11743   0.10749  -0.0171   0.4962   0.4241
  -9.250  -0.0926   0.11906   0.10914  -0.0178   0.4942   0.4321
  -9.000  -0.0372   0.11284   0.10283  -0.0229   0.4864   0.4368
  -8.750  -0.0023   0.11010   0.10000  -0.0272   0.4816   0.4447
  -8.500  -0.0230   0.11306   0.10301  -0.0271   0.4808   0.4539
  -8.250   0.0330   0.10665   0.09669  -0.0320   0.4751   0.4577
  -8.000   0.0676   0.10382   0.09388  -0.0352   0.4695   0.4641
  -7.750   0.0662   0.10491   0.09498  -0.0356   0.4676   0.4741
  -7.500   0.0890   0.10233   0.09236  -0.0379   0.4627   0.4778
  -7.250   0.1281   0.09915   0.08911  -0.0411   0.4589   0.4824
  -7.000   0.1497   0.09769   0.08777  -0.0422   0.4564   0.4894
  -6.750   0.1391   0.09907   0.08924  -0.0411   0.4561   0.4987
  -6.500   0.1799   0.09535   0.08563  -0.0436   0.4535   0.5031
  -6.250   0.2034   0.09392   0.08430  -0.0444   0.4521   0.5108
  -6.000   0.1888   0.09569   0.08616  -0.0423   0.4521   0.5205
  -5.750   0.2246   0.09255   0.08314  -0.0440   0.4507   0.5240
  -5.500   0.2481   0.09111   0.08182  -0.0443   0.4493   0.5310
  -5.250   0.2281   0.09338   0.08421  -0.0409   0.4494   0.5421
  -5.000   0.2640   0.09027   0.08120  -0.0422   0.4468   0.5461
  -4.750   0.2842   0.08926   0.08028  -0.0418   0.4445   0.5539
  -4.500   0.2727   0.09046   0.08160  -0.0386   0.4436   0.5645
  -4.250   0.3033   0.08848   0.07974  -0.0393   0.4427   0.5702
  -4.000   0.2844   0.09084   0.08228  -0.0350   0.4444   0.5839
  -3.750   0.3154   0.08861   0.08023  -0.0360   0.4453   0.5881
  -3.500   0.3323   0.08830   0.08012  -0.0354   0.4470   0.5967
  -3.250   0.3247   0.08937   0.08136  -0.0323   0.4491   0.6071
  -3.000   0.3474   0.08882   0.08099  -0.0325   0.4507   0.6147
  -2.750   0.3373   0.09023   0.08255  -0.0291   0.4527   0.6272
  -2.500   0.3613   0.08978   0.08223  -0.0296   0.4540   0.6345
  -2.250   0.3534   0.09121   0.08379  -0.0264   0.4554   0.6480
  -2.000   0.3784   0.09116   0.08381  -0.0271   0.4578   0.6572
  -1.750   0.3643   0.09465   0.08781  -0.0266   0.4778   0.6702
  -1.500   0.3479   0.09926   0.09273  -0.0260   0.5057   0.6879
   2.250  -0.2696   0.10651   0.10026   0.0349   0.6148   0.5848
   2.500  -0.2789   0.10588   0.09980   0.0434   0.5968   0.6112
   3.000  -0.2428   0.09899   0.09164   0.0202   0.5744   0.4702
   3.250  -0.2403   0.09869   0.09123   0.0213   0.5626   0.4652
   3.500  -0.2176   0.09884   0.09084   0.0189   0.5517   0.4533
   3.750  -0.2199   0.09854   0.09051   0.0210   0.5392   0.4516
   4.000  -0.1944   0.09974   0.09163   0.0209   0.5293   0.4505
   4.250  -0.2005   0.09937   0.09115   0.0231   0.5181   0.4497
   4.500  -0.1800   0.10039   0.09206   0.0234   0.5083   0.4484
   4.750  -0.1374   0.10442   0.09595   0.0216   0.5042   0.4479
   5.000  -0.1701   0.10117   0.09263   0.0258   0.4894   0.4469
   5.250  -0.1393   0.10357   0.09490   0.0252   0.4837   0.4457
   5.500  -0.1529   0.10280   0.09402   0.0274   0.4737   0.4451
   5.750  -0.1335   0.10405   0.09515   0.0277   0.4640   0.4441
   6.000  -0.0801   0.10969   0.10066   0.0255   0.4592   0.4434
   6.250  -0.1188   0.10563   0.09651   0.0290   0.4453   0.4428
   6.500  -0.0884   0.10829   0.09905   0.0283   0.4392   0.4428
   6.750  -0.0854   0.10948   0.10015   0.0286   0.4332   0.4427
   7.000  -0.0811   0.10964   0.10023   0.0290   0.4214   0.4426
   7.250  -0.0375   0.11409   0.10458   0.0274   0.4150   0.4435
   7.500  -0.0570   0.11265   0.10307   0.0284   0.4030   0.4433
   7.750  -0.0253   0.11555   0.10588   0.0273   0.3944   0.4452
   8.000  -0.0162   0.11758   0.10784   0.0265   0.3878   0.4457
   8.250  -0.0075   0.11822   0.10841   0.0256   0.3760   0.4469
   8.500   0.0467   0.12451   0.11459   0.0225   0.3699   0.4504
   8.750   0.0220   0.12260   0.11264   0.0223   0.3610   0.4504
   9.000   0.0455   0.12518   0.11513   0.0203   0.3528   0.4521
   9.250   0.0987   0.13178   0.12172   0.0163   0.3482   0.4562
   9.500   0.0804   0.13070   0.12063   0.0151   0.3428   0.4574
   9.750   0.0934   0.13234   0.12226   0.0129   0.3348   0.4595
  10.000   0.1238   0.13601   0.12592   0.0101   0.3298   0.4653
  10.250   0.1778   0.14425   0.13405   0.0066   0.3265   0.4747
  10.500   0.1520   0.14156   0.13134   0.0055   0.3223   0.4743
  10.750   0.1643   0.14299   0.13279   0.0026   0.3149   0.4778
  11.000   0.1937   0.14657   0.13644  -0.0009   0.3098   0.4850
  11.250   0.2304   0.15189   0.14176  -0.0042   0.3069   0.4946
  11.750   0.2570   0.15712   0.14711  -0.0105   0.3029   0.5057
  12.000   0.2615   0.15755   0.14759  -0.0132   0.2977   0.5110
  12.250   0.2800   0.16017   0.15025  -0.0162   0.2939   0.5204
  12.500   0.3044   0.16346   0.15372  -0.0197   0.2908   0.5330
  12.750   0.3342   0.16775   0.15820  -0.0233   0.2881   0.5531
  13.000   0.3752   0.17446   0.16534  -0.0279   0.2861   0.5909
  13.250   0.4503   0.18763   0.17947  -0.0390   0.2847   1.0000
  13.500   0.4265   0.18250   0.17431  -0.0407   0.2834   1.0000
  13.750   0.4242   0.18177   0.17343  -0.0426   0.2796   1.0000
