  
       XFOIL         Version 6.96
  
 Calculated polar for: AH 81-K-144 W-F KLAPPE                          
  
 1 1 Reynolds number fixed          Mach number fixed         
  
 xtrf =   1.000 (top)        1.000 (bottom)  
 Mach =   0.000     Re =     0.500 e 6     Ncrit =   9.000
  
   alpha    CL        CD       CDp       CM     Top_Xtr  Bot_Xtr
  ------ -------- --------- --------- -------- -------- --------
 -16.500  -0.9223   0.10982   0.10651   0.0006   1.0000   0.1279
 -16.250  -1.4953   0.03343   0.02915  -0.0456   1.0000   0.1465
 -16.000  -1.4985   0.03009   0.02606  -0.0494   1.0000   0.1792
 -15.750  -1.5033   0.02773   0.02348  -0.0495   1.0000   0.1866
 -15.500  -1.4995   0.02645   0.02204  -0.0485   1.0000   0.1901
 -15.250  -1.4573   0.02808   0.02386  -0.0482   1.0000   0.1939
 -15.000  -1.4255   0.02890   0.02474  -0.0476   1.0000   0.1964
 -14.750  -1.3913   0.03005   0.02594  -0.0470   1.0000   0.1997
 -14.500  -1.3824   0.02964   0.02545  -0.0454   1.0000   0.2016
 -14.250  -1.3786   0.02938   0.02509  -0.0426   1.0000   0.2034
 -14.000  -1.3684   0.02953   0.02517  -0.0399   1.0000   0.2043
 -13.750  -1.3568   0.02905   0.02472  -0.0375   1.0000   0.2065
 -12.750  -0.6368   0.09141   0.08612  -0.0175   0.3219   0.1897
 -12.500  -0.6152   0.09103   0.08572  -0.0172   0.3191   0.1902
 -12.250  -0.5890   0.09135   0.08601  -0.0167   0.3158   0.1907
 -12.000  -0.5652   0.09123   0.08585  -0.0164   0.3132   0.1912
 -11.750  -0.5413   0.09096   0.08554  -0.0163   0.3099   0.1917
 -11.500  -0.5097   0.09158   0.08610  -0.0162   0.3051   0.1923
 -11.250  -0.4882   0.09112   0.08563  -0.0160   0.3040   0.1929
 -11.000  -0.4577   0.09197   0.08648  -0.0150   0.3019   0.1939
 -10.750  -0.5099   0.08203   0.07650  -0.0224   0.3028   0.2054
 -10.500  -0.4758   0.08332   0.07779  -0.0209   0.3004   0.2060
 -10.250  -0.4487   0.08337   0.07782  -0.0203   0.2978   0.2065
 -10.000  -0.4188   0.08390   0.07832  -0.0194   0.2947   0.2071
  -9.750  -0.3844   0.08491   0.07930  -0.0183   0.2917   0.2079
  -9.500  -0.3634   0.08393   0.07827  -0.0186   0.2893   0.2087
  -9.250  -0.3798   0.08021   0.07455  -0.0230   0.2885   0.2219
  -9.000  -0.3343   0.08158   0.07587  -0.0222   0.2843   0.2227
  -8.750  -0.3080   0.08127   0.07555  -0.0213   0.2828   0.2233
  -8.500  -0.2708   0.08226   0.07655  -0.0196   0.2806   0.2245
  -8.250  -0.2490   0.08122   0.07548  -0.0198   0.2789   0.2255
  -8.000  -0.2278   0.08027   0.07452  -0.0198   0.2763   0.2270
  -7.750  -0.3918   0.05202   0.04620  -0.0514   0.2826   0.2392
  -7.500  -0.5235   0.03425   0.02785  -0.0533   0.2855   0.2323
  -7.250  -0.5245   0.03172   0.02512  -0.0513   0.2844   0.2329
  -7.000  -0.5129   0.03059   0.02387  -0.0494   0.2834   0.2339
  -6.750  -0.4982   0.02960   0.02278  -0.0477   0.2820   0.2345
  -6.500  -0.4805   0.02898   0.02207  -0.0462   0.2803   0.2354
  -6.250  -0.4653   0.02785   0.02083  -0.0445   0.2786   0.2353
  -6.000  -0.4478   0.02697   0.01985  -0.0429   0.2766   0.2355
  -5.750  -0.4277   0.02644   0.01923  -0.0415   0.2748   0.2360
  -5.500  -0.4066   0.02601   0.01872  -0.0401   0.2730   0.2363
  -5.250  -0.3877   0.02523   0.01783  -0.0386   0.2713   0.2363
  -5.000  -0.3670   0.02469   0.01720  -0.0372   0.2697   0.2365
  -4.750  -0.3452   0.02424   0.01665  -0.0360   0.2678   0.2366
  -4.500  -0.3214   0.02394   0.01625  -0.0352   0.2651   0.2367
  -4.250  -0.2993   0.02356   0.01582  -0.0338   0.2644   0.2369
  -4.000  -0.2774   0.02310   0.01530  -0.0325   0.2634   0.2369
  -3.750  -0.2549   0.02269   0.01485  -0.0311   0.2622   0.2370
  -3.500  -0.2323   0.02231   0.01442  -0.0298   0.2607   0.2371
  -3.250  -0.2092   0.02197   0.01403  -0.0286   0.2594   0.2372
  -3.000  -0.1858   0.02169   0.01371  -0.0273   0.2578   0.2373
  -2.750  -0.1631   0.02128   0.01324  -0.0260   0.2561   0.2373
  -2.500  -0.1421   0.02061   0.01248  -0.0245   0.2543   0.2375
  -2.250  -0.1194   0.02013   0.01193  -0.0232   0.2531   0.2377
  -2.000  -0.0966   0.01964   0.01138  -0.0219   0.2519   0.2380
  -1.750  -0.0728   0.01929   0.01097  -0.0208   0.2507   0.2382
  -1.500  -0.0485   0.01898   0.01059  -0.0198   0.2493   0.2385
  -1.250  -0.0229   0.01890   0.01046  -0.0190   0.2476   0.2387
  -1.000   0.0026   0.01882   0.01037  -0.0182   0.2462   0.2390
  -0.750   0.0272   0.01853   0.01006  -0.0171   0.2457   0.2395
  -0.500   0.0524   0.01837   0.00991  -0.0161   0.2450   0.2397
  -0.250   0.0772   0.01815   0.00968  -0.0150   0.2440   0.2399
   0.000   0.1020   0.01796   0.00950  -0.0139   0.2428   0.2403
   0.250   0.1264   0.01772   0.00926  -0.0127   0.2411   0.2407
   0.500   0.1516   0.01762   0.00916  -0.0117   0.2399   0.2412
   0.750   0.1763   0.01746   0.00899  -0.0106   0.2384   0.2416
   1.000   0.2015   0.01737   0.00890  -0.0095   0.2372   0.2419
   1.250   0.2261   0.01721   0.00873  -0.0084   0.2357   0.2426
   1.500   0.2513   0.01715   0.00867  -0.0073   0.2348   0.2430
   1.750   0.2764   0.01711   0.00862  -0.0063   0.2339   0.2435
   2.000   0.3012   0.01707   0.00857  -0.0052   0.2327   0.2441
   2.250   0.3263   0.01711   0.00861  -0.0042   0.2316   0.2450
   2.500   0.3517   0.01727   0.00875  -0.0033   0.2300   0.2453
   2.750   0.3771   0.01757   0.00908  -0.0025   0.2287   0.2460
   3.000   0.4012   0.01748   0.00901  -0.0012   0.2280   0.2471
   3.250   0.4260   0.01758   0.00915  -0.0001   0.2275   0.2478
   3.500   0.4500   0.01758   0.00918   0.0011   0.2267   0.2493
   3.750   0.4742   0.01758   0.00921   0.0024   0.2257   0.2501
   4.000   0.4983   0.01760   0.00926   0.0035   0.2247   0.2509
   4.250   0.5225   0.01771   0.00940   0.0047   0.2238   0.2520
   4.500   0.5465   0.01775   0.00946   0.0059   0.2228   0.2531
   4.750   0.5703   0.01774   0.00945   0.0072   0.2215   0.2539
   5.000   0.5941   0.01771   0.00942   0.0085   0.2202   0.2547
   5.250   0.6177   0.01773   0.00944   0.0098   0.2191   0.2554
   5.500   0.6419   0.01771   0.00945   0.0108   0.2184   0.2571
   5.750   0.6656   0.01757   0.00932   0.0121   0.2172   0.2596
   6.000   0.6891   0.01757   0.00934   0.0133   0.2161   0.2614
   6.250   0.7126   0.01769   0.00948   0.0145   0.2150   0.2632
   6.500   0.7362   0.01799   0.00979   0.0156   0.2133   0.2652
   6.750   0.7590   0.01830   0.01015   0.0168   0.2119   0.2674
   7.000   0.7813   0.01836   0.01026   0.0182   0.2113   0.2698
   7.250   0.8037   0.01843   0.01039   0.0196   0.2104   0.2715
   7.500   0.8260   0.01851   0.01052   0.0210   0.2094   0.2733
   7.750   0.8480   0.01864   0.01068   0.0224   0.2084   0.2749
   8.000   0.8714   0.01871   0.01081   0.0235   0.2073   0.2778
   8.250   0.8951   0.01874   0.01092   0.0245   0.2061   0.2823
   8.500   0.9183   0.01884   0.01108   0.0256   0.2050   0.2855
   8.750   0.9415   0.01894   0.01121   0.0268   0.2039   0.2887
   9.000   0.9649   0.01894   0.01123   0.0279   0.2025   0.2913
   9.250   0.9879   0.01909   0.01140   0.0290   0.2016   0.2934
   9.500   1.0092   0.01921   0.01152   0.0304   0.2004   0.2958
   9.750   1.0328   0.01932   0.01166   0.0313   0.1992   0.2997
  10.000   1.0566   0.01960   0.01197   0.0320   0.1976   0.3045
  10.250   1.0796   0.02000   0.01243   0.0328   0.1961   0.3087
  10.500   1.1028   0.02016   0.01268   0.0336   0.1953   0.3132
  10.750   1.1263   0.02031   0.01291   0.0345   0.1941   0.3176
  11.000   1.1537   0.02046   0.01319   0.0344   0.1927   0.3283
  11.250   1.1801   0.02067   0.01350   0.0345   0.1914   0.3385
  11.500   1.2128   0.02080   0.01383   0.0333   0.1898   0.3802
  11.750   1.2767   0.02052   0.01424   0.0258   0.1876   0.6260
  12.000   1.3980   0.02028   0.01469   0.0079   0.1841   1.0000
  12.250   1.4128   0.02057   0.01495   0.0102   0.1824   1.0000
  12.500   1.4278   0.02099   0.01539   0.0123   0.1812   1.0000
  12.750   1.4457   0.02130   0.01578   0.0139   0.1798   1.0000
  13.000   1.4629   0.02166   0.01619   0.0155   0.1782   1.0000
  13.250   1.4798   0.02198   0.01656   0.0172   0.1759   1.0000
  13.500   1.4955   0.02236   0.01697   0.0189   0.1737   1.0000
  13.750   1.5105   0.02276   0.01737   0.0206   0.1716   1.0000
  14.000   1.5229   0.02326   0.01785   0.0225   0.1689   1.0000
  14.250   1.5334   0.02396   0.01857   0.0243   0.1666   1.0000
  14.500   1.5440   0.02478   0.01947   0.0258   0.1647   1.0000
  14.750   1.5526   0.02573   0.02048   0.0273   0.1618   1.0000
  15.000   1.5577   0.02696   0.02176   0.0286   0.1592   1.0000
  15.250   1.5557   0.02881   0.02363   0.0295   0.1559   1.0000
  15.500   1.5462   0.03161   0.02650   0.0297   0.1533   1.0000
  15.750   1.5314   0.03553   0.03058   0.0284   0.1516   1.0000
  16.000   1.1389   0.08706   0.08296  -0.0008   0.1362   1.0000
  16.250   1.1242   0.09214   0.08806  -0.0031   0.1336   1.0000
  16.500   1.1255   0.09503   0.09092  -0.0042   0.1318   1.0000
  16.750   1.1361   0.09660   0.09240  -0.0046   0.1294   1.0000
  17.000   1.1222   0.10175   0.09761  -0.0068   0.1277   1.0000
  17.250   1.0996   0.10825   0.10421  -0.0098   0.1265   1.0000
  17.500   1.0790   0.11460   0.11065  -0.0128   0.1246   1.0000
  17.750   1.0518   0.12208   0.11821  -0.0164   0.1229   1.0000
  18.000   1.0504   0.12566   0.12181  -0.0180   0.1217   1.0000
  18.250   1.0145   0.13475   0.13101  -0.0224   0.1203   1.0000
