  
       XFOIL         Version 6.96
  
 Calculated polar for: AH 81-K-144 W-F KLAPPE                          
  
 1 1 Reynolds number fixed          Mach number fixed         
  
 xtrf =   1.000 (top)        1.000 (bottom)  
 Mach =   0.000     Re =     0.100 e 6     Ncrit =   9.000
  
   alpha    CL        CD       CDp       CM     Top_Xtr  Bot_Xtr
  ------ -------- --------- --------- -------- -------- --------
 -13.750  -0.3975   0.15633   0.14949   0.0128   0.5262   0.2221
 -13.500  -0.3590   0.15262   0.14538   0.0099   0.4744   0.2265
 -13.250  -0.3902   0.15355   0.14630   0.0064   0.4783   0.2368
 -13.000  -0.3534   0.14676   0.13929   0.0034   0.4570   0.2392
 -12.750  -0.3136   0.14284   0.13520   0.0013   0.4423   0.2434
 -12.500  -0.3500   0.14506   0.13743  -0.0014   0.4447   0.2551
 -12.250  -0.3117   0.13802   0.13020  -0.0046   0.4330   0.2575
 -12.000  -0.2684   0.13366   0.12573  -0.0069   0.4241   0.2610
 -11.750  -0.2410   0.13089   0.12282  -0.0104   0.4167   0.2689
 -11.500  -0.1696   0.12612   0.11836  -0.0274   0.4106   0.2757
 -11.250  -0.1124   0.11901   0.11117  -0.0298   0.4026   0.2775
 -11.000  -0.0774   0.11528   0.10733  -0.0316   0.3973   0.2805
 -10.750  -0.2620   0.12633   0.11807  -0.0201   0.4084   0.2963
 -10.500  -0.2048   0.11949   0.11110  -0.0222   0.4010   0.2976
 -10.250  -0.1602   0.11514   0.10660  -0.0247   0.3955   0.2997
 -10.000  -0.1209   0.11217   0.10347  -0.0283   0.3908   0.3037
  -9.750  -0.1020   0.11023   0.10153  -0.0296   0.3878   0.3093
  -9.500  -0.1473   0.11201   0.10330  -0.0318   0.3893   0.3185
  -9.250  -0.1029   0.10746   0.09875  -0.0332   0.3839   0.3199
  -9.000  -0.0658   0.10425   0.09550  -0.0348   0.3788   0.3221
  -8.750  -0.0362   0.10195   0.09313  -0.0366   0.3751   0.3253
  -8.500  -0.0121   0.10019   0.09128  -0.0387   0.3717   0.3300
  -8.250  -0.0700   0.10304   0.09423  -0.0395   0.3742   0.3404
  -8.000  -0.0225   0.09889   0.08995  -0.0424   0.3700   0.3414
  -7.750   0.0163   0.09581   0.08687  -0.0442   0.3676   0.3428
  -7.500   0.0472   0.09346   0.08457  -0.0451   0.3652   0.3450
  -7.250   0.0727   0.09170   0.08286  -0.0460   0.3635   0.3478
  -7.000   0.0928   0.09028   0.08148  -0.0469   0.3613   0.3512
  -6.750   0.0335   0.09301   0.08428  -0.0467   0.3629   0.3629
  -6.500   0.0722   0.08965   0.08095  -0.0478   0.3605   0.3638
  -6.250   0.1079   0.08707   0.07841  -0.0486   0.3584   0.3651
  -6.000   0.1377   0.08517   0.07654  -0.0492   0.3564   0.3670
  -5.750   0.1622   0.08377   0.07517  -0.0494   0.3545   0.3694
  -5.500   0.1824   0.08266   0.07404  -0.0495   0.3523   0.3736
  -5.250   0.1233   0.08460   0.07614  -0.0468   0.3539   0.3860
  -5.000   0.1592   0.08209   0.07359  -0.0474   0.3510   0.3870
  -4.750   0.1892   0.08049   0.07198  -0.0476   0.3489   0.3883
  -4.500   0.2146   0.07965   0.07118  -0.0474   0.3474   0.3902
  -4.250   0.2342   0.07870   0.07035  -0.0464   0.3466   0.3930
  -4.000   0.1538   0.08079   0.07256  -0.0405   0.3483   0.4084
  -3.750   0.1916   0.07895   0.07079  -0.0408   0.3470   0.4093
  -3.500   0.2229   0.07737   0.06935  -0.0402   0.3463   0.4107
  -3.250   0.2477   0.07638   0.06852  -0.0391   0.3455   0.4126
  -3.000   0.2666   0.07573   0.06803  -0.0375   0.3445   0.4155
  -2.750   0.1886   0.07708   0.06945  -0.0303   0.3459   0.4316
  -2.500   0.2224   0.07553   0.06808  -0.0300   0.3445   0.4325
  -2.250   0.2483   0.07468   0.06741  -0.0289   0.3428   0.4340
  -2.000   0.2673   0.07439   0.06728  -0.0273   0.3424   0.4360
  -1.750   0.2810   0.07444   0.06749  -0.0254   0.3427   0.4392
  -1.500   0.2840   0.07465   0.06785  -0.0228   0.3429   0.4448
  -1.250   0.2372   0.07452   0.06782  -0.0168   0.3435   0.4562
  -1.000   0.2584   0.07466   0.06812  -0.0156   0.3438   0.4583
  -0.750   0.2686   0.07511   0.06874  -0.0134   0.3436   0.4616
   0.000  -0.0428   0.09423   0.08962   0.0075   0.4500   0.4783
   0.250  -0.0210   0.09390   0.08930   0.0091   0.4427   0.4807
   0.500   0.0241   0.09393   0.08931   0.0083   0.4395   0.4858
   0.750  -0.1166   0.09429   0.08962   0.0210   0.4260   0.4995
   1.000  -0.1001   0.09387   0.08923   0.0232   0.4201   0.5020
   1.250  -0.1370   0.08209   0.07605   0.0077   0.4190   0.3859
   1.500  -0.1022   0.08205   0.07616   0.0087   0.4163   0.3889
   1.750  -0.0913   0.08414   0.07835   0.0105   0.4121   0.3926
   2.000  -0.1318   0.08548   0.07979   0.0164   0.3964   0.4131
   2.250  -0.1014   0.08715   0.08158   0.0190   0.3936   0.4352
   2.500  -0.0642   0.08894   0.08345   0.0208   0.3921   0.4567
   2.750  -0.1415   0.08948   0.08395   0.0258   0.3759   0.4572
   3.000  -0.1222   0.09047   0.08505   0.0282   0.3730   0.4663
   3.250  -0.0998   0.09149   0.08611   0.0309   0.3711   0.4844
   3.500  -0.0794   0.08285   0.07536   0.0229   0.3703   0.3459
   3.750  -0.0375   0.08465   0.07694   0.0231   0.3693   0.3442
   4.000  -0.1287   0.08381   0.07592   0.0280   0.3537   0.3430
   4.250  -0.1088   0.08482   0.07681   0.0291   0.3512   0.3429
   4.500  -0.0763   0.08634   0.07822   0.0298   0.3492   0.3427
   4.750  -0.0369   0.08867   0.08049   0.0300   0.3479   0.3431
   5.000  -0.1091   0.08801   0.07972   0.0326   0.3347   0.3423
   5.250  -0.0870   0.08908   0.08069   0.0333   0.3308   0.3422
   5.500  -0.0626   0.09071   0.08234   0.0338   0.3288   0.3444
   5.750  -0.0121   0.09356   0.08514   0.0338   0.3268   0.3457
   6.000  -0.0753   0.09317   0.08466   0.0346   0.3169   0.3443
   6.250  -0.0598   0.09443   0.08590   0.0349   0.3119   0.3457
   6.500  -0.0326   0.09609   0.08751   0.0349   0.3087   0.3467
   6.750   0.0120   0.09885   0.09024   0.0348   0.3065   0.3480
   7.000   0.0670   0.10352   0.09490   0.0342   0.3052   0.3496
   7.250  -0.0192   0.10089   0.09220   0.0338   0.2933   0.3475
   7.500   0.0065   0.10281   0.09409   0.0334   0.2891   0.3485
   7.750   0.0422   0.10551   0.09677   0.0328   0.2868   0.3505
   8.000   0.0922   0.10990   0.10115   0.0322   0.2853   0.3522
   8.250   0.0262   0.10884   0.10007   0.0306   0.2741   0.3509
   8.500   0.0522   0.11099   0.10220   0.0298   0.2693   0.3526
   8.750   0.0957   0.11443   0.10562   0.0291   0.2667   0.3554
   9.000   0.0655   0.11613   0.10732   0.0272   0.2606   0.3545
   9.250   0.0746   0.11795   0.10912   0.0258   0.2544   0.3553
   9.500   0.0979   0.12028   0.11143   0.0246   0.2507   0.3581
   9.750   0.1264   0.12329   0.11441   0.0234   0.2488   0.3595
  10.000   0.1634   0.12746   0.11854   0.0223   0.2475   0.3622
  10.250   0.2204   0.13431   0.12554   0.0195   0.2466   0.3672
  10.500   0.1412   0.13084   0.12194   0.0176   0.2419   0.3633
  10.750   0.1548   0.13301   0.12417   0.0150   0.2375   0.3651
  11.000   0.1741   0.13553   0.12678   0.0127   0.2347   0.3681
  11.250   0.1947   0.13818   0.12949   0.0107   0.2329   0.3722
  11.500   0.2194   0.14124   0.13259   0.0088   0.2314   0.3756
  11.750   0.2505   0.14531   0.13667   0.0068   0.2302   0.3808
  12.000   0.2924   0.15136   0.14276   0.0040   0.2294   0.3864
  12.250   0.3350   0.15835   0.14990  -0.0001   0.2289   0.3948
  12.500   0.2843   0.15419   0.14570  -0.0024   0.2273   0.3909
  12.750   0.2866   0.15530   0.14687  -0.0060   0.2229   0.3935
