  
       XFOIL         Version 6.96
  
 Calculated polar for: AH 79-K-132/20                                  
  
 1 1 Reynolds number fixed          Mach number fixed         
  
 xtrf =   1.000 (top)        1.000 (bottom)  
 Mach =   0.000     Re =     0.100 e 6     Ncrit =   9.000
  
   alpha    CL        CD       CDp       CM     Top_Xtr  Bot_Xtr
  ------ -------- --------- --------- -------- -------- --------
 -12.500  -0.3508   0.14582   0.14146  -0.0494   1.0000   0.0661
 -12.250  -0.3676   0.14572   0.14144  -0.0474   1.0000   0.0662
 -12.000  -0.3849   0.14546   0.14125  -0.0453   1.0000   0.0663
 -11.750  -0.3546   0.13701   0.13276  -0.0414   0.9994   0.0685
 -11.500  -0.3388   0.13297   0.12866  -0.0426   0.9965   0.0714
 -11.250  -0.3311   0.12950   0.12519  -0.0451   0.9929   0.0759
 -11.000  -0.3330   0.12665   0.12237  -0.0501   0.9890   0.0791
 -10.750  -0.3398   0.12404   0.11983  -0.0569   0.9851   0.0800
 -10.500  -0.3205   0.11780   0.11354  -0.0566   0.9836   0.0821
 -10.250  -0.3060   0.11425   0.10996  -0.0565   0.9811   0.0848
 -10.000  -0.2989   0.11086   0.10658  -0.0584   0.9780   0.0881
  -9.750  -0.1982   0.09814   0.09405  -0.0693   0.9634   0.0985
  -9.500  -0.1927   0.09472   0.09064  -0.0706   0.9614   0.1025
  -9.250  -0.2004   0.09110   0.08704  -0.0740   0.9594   0.1066
  -9.000  -0.2855   0.09635   0.09212  -0.0695   0.9666   0.0989
  -8.750  -0.2814   0.09322   0.08900  -0.0714   0.9633   0.1028
  -8.500  -0.2912   0.08973   0.08555  -0.0771   0.9595   0.1066
  -8.250  -0.3210   0.08764   0.08350  -0.0795   0.9542   0.1074
  -8.000  -0.3518   0.08634   0.08219  -0.0786   0.9486   0.1078
  -7.750  -0.3809   0.08484   0.08047  -0.0799   0.9441   0.1084
  -7.500  -0.3247   0.07854   0.07442  -0.0783   0.9446   0.1139
  -7.250  -0.3404   0.07688   0.07276  -0.0757   0.9406   0.1167
  -7.000  -0.3604   0.07540   0.07126  -0.0728   0.9363   0.1187
  -6.500  -0.3653   0.06949   0.06521  -0.0723   0.9301   0.1285
  -6.250  -0.3766   0.06802   0.06367  -0.0688   0.9266   0.1323
  -6.000  -0.4024   0.06676   0.06207  -0.0656   0.9227   0.1380
  -5.750  -0.3977   0.06559   0.06073  -0.0640   0.9195   0.1513
  -5.500  -0.3765   0.06125   0.05664  -0.0638   0.9171   0.1594
  -5.250  -0.3678   0.05871   0.05397  -0.0633   0.9143   0.1719
  -5.000  -0.3760   0.05729   0.05241  -0.0596   0.9110   0.1835
  -4.750  -0.3546   0.04550   0.03880  -0.0589   0.9091   0.0825
  -4.500  -0.3336   0.04255   0.03541  -0.0579   0.9061   0.0767
  -4.250  -0.3037   0.03957   0.03188  -0.0584   0.9029   0.0754
  -4.000  -0.2797   0.03849   0.03006  -0.0575   0.8996   0.0802
  -3.750  -0.2654   0.03641   0.02779  -0.0558   0.8962   0.0827
  -3.500  -0.2415   0.03517   0.02639  -0.0553   0.8924   0.0875
  -3.250  -0.2061   0.03395   0.02484  -0.0566   0.8887   0.0976
  -3.000  -0.1859   0.03362   0.02428  -0.0554   0.8844   0.1080
  -2.750  -0.1687   0.03307   0.02378  -0.0542   0.8799   0.1199
  -2.500  -0.1348   0.03235   0.02302  -0.0553   0.8753   0.1322
  -2.250  -0.1126   0.03208   0.02278  -0.0547   0.8702   0.1462
  -2.000  -0.0959   0.03178   0.02255  -0.0532   0.8651   0.1585
  -1.750  -0.0590   0.03137   0.02228  -0.0547   0.8600   0.1862
  -1.500   0.2094   0.02956   0.02275  -0.0920   0.8608   1.0000
  -1.250   0.1935   0.03029   0.02343  -0.0854   0.8526   1.0000
  -1.000   0.2208   0.03063   0.02359  -0.0860   0.8470   1.0000
  -0.750   0.2111   0.03131   0.02421  -0.0804   0.8387   1.0000
  -0.500   0.2391   0.03169   0.02443  -0.0810   0.8328   1.0000
  -0.250   0.2317   0.03234   0.02502  -0.0757   0.8236   1.0000
   0.000   0.2711   0.03269   0.02520  -0.0780   0.8182   1.0000
   0.250   0.2600   0.03333   0.02579  -0.0721   0.8080   1.0000
   0.500   0.2657   0.03388   0.02627  -0.0689   0.7992   1.0000
   0.750   0.2980   0.03426   0.02655  -0.0698   0.7930   1.0000
   1.000   0.2886   0.03482   0.02707  -0.0642   0.7824   1.0000
   1.250   0.2979   0.03530   0.02746  -0.0615   0.7737   1.0000
   1.500   0.3238   0.03565   0.02774  -0.0613   0.7668   1.0000
   1.750   0.3203   0.03616   0.02820  -0.0567   0.7566   1.0000
   2.000   0.3620   0.03641   0.02839  -0.0588   0.7518   1.0000
   2.250   0.3552   0.03694   0.02888  -0.0538   0.7409   1.0000
   2.500   0.4016   0.03713   0.02901  -0.0565   0.7371   1.0000
   2.750   0.3963   0.03770   0.02955  -0.0520   0.7258   1.0000
   3.000   0.4047   0.03828   0.03009  -0.0496   0.7161   1.0000
   3.250   0.4420   0.03840   0.03020  -0.0508   0.7111   1.0000
   3.500   0.4486   0.03907   0.03085  -0.0484   0.7008   1.0000
   3.750   0.4900   0.03904   0.03082  -0.0500   0.6968   1.0000
   4.000   0.4967   0.03974   0.03151  -0.0477   0.6860   1.0000
   4.250   0.5374   0.03962   0.03143  -0.0491   0.6822   1.0000
   4.500   0.5469   0.04029   0.03211  -0.0472   0.6715   1.0000
   4.750   0.5607   0.04090   0.03273  -0.0458   0.6614   1.0000
   5.000   0.6003   0.04056   0.03244  -0.0469   0.6570   1.0000
   5.250   0.6115   0.04129   0.03320  -0.0453   0.6462   1.0000
   5.500   0.6542   0.04068   0.03269  -0.0466   0.6427   1.0000
   5.750   0.6647   0.04144   0.03349  -0.0449   0.6314   1.0000
   6.000   0.7018   0.04095   0.03309  -0.0455   0.6266   1.0000
   6.250   0.7209   0.04125   0.03349  -0.0445   0.6168   1.0000
   6.500   0.7670   0.04006   0.03243  -0.0456   0.6140   1.0000
   6.750   0.7789   0.04072   0.03316  -0.0440   0.6023   1.0000
   7.000   0.8291   0.03900   0.03161  -0.0452   0.6002   1.0000
   7.250   0.8413   0.03957   0.03230  -0.0435   0.5881   1.0000
   7.500   0.8927   0.03735   0.03028  -0.0445   0.5859   1.0000
   8.000   0.9320   0.03706   0.03025  -0.0417   0.5640   1.0000
   8.250   0.9982   0.03297   0.02647  -0.0429   0.5619   1.0000
   8.500   1.0723   0.02816   0.02194  -0.0446   0.5524   1.0000
   8.750   1.1217   0.02604   0.02001  -0.0454   0.5362   1.0000
   9.000   1.1691   0.02455   0.01870  -0.0466   0.5165   1.0000
   9.250   1.1761   0.02462   0.01880  -0.0430   0.4909   1.0000
   9.500   1.1799   0.02474   0.01882  -0.0390   0.4573   1.0000
   9.750   1.1725   0.02572   0.01968  -0.0346   0.4207   1.0000
  10.000   1.1680   0.02697   0.02078  -0.0311   0.3835   1.0000
  10.250   1.1631   0.02846   0.02210  -0.0277   0.3449   1.0000
  10.500   1.1528   0.03045   0.02387  -0.0243   0.2980   1.0000
  10.750   1.1360   0.03310   0.02612  -0.0207   0.2383   1.0000
  11.000   1.1122   0.03664   0.02907  -0.0171   0.1655   1.0000
  11.250   1.0870   0.04078   0.03255  -0.0140   0.1026   1.0000
  11.500   1.0687   0.04470   0.03608  -0.0114   0.0741   1.0000
  11.750   1.0579   0.04811   0.03935  -0.0095   0.0614   1.0000
  12.000   1.0536   0.05106   0.04232  -0.0080   0.0520   1.0000
  12.250   1.0545   0.05359   0.04483  -0.0064   0.0469   1.0000
  12.500   1.0663   0.05526   0.04656  -0.0050   0.0431   1.0000
  12.750   1.0902   0.05646   0.04763  -0.0034   0.0390   1.0000
  13.000   1.1273   0.05793   0.04928  -0.0024   0.0358   1.0000
  13.250   1.1436   0.06003   0.05161  -0.0016   0.0338   1.0000
  13.500   1.1614   0.06246   0.05427  -0.0009   0.0324   1.0000
  13.750   1.1740   0.06525   0.05730  -0.0002   0.0315   1.0000
  14.000   1.1810   0.06871   0.06106   0.0005   0.0313   1.0000
  14.250   1.1791   0.07257   0.06526   0.0013   0.0315   1.0000
  14.500   1.1711   0.07678   0.06979   0.0019   0.0317   1.0000
  14.750   1.1587   0.08131   0.07464   0.0020   0.0320   1.0000
  15.000   1.1427   0.08626   0.07989   0.0018   0.0324   1.0000
  15.250   1.1250   0.09154   0.08545   0.0009   0.0327   1.0000
  15.500   1.1046   0.09744   0.09162  -0.0006   0.0331   1.0000
  15.750   1.0853   0.10354   0.09795  -0.0027   0.0335   1.0000
  16.000   1.0627   0.11061   0.10525  -0.0058   0.0339   1.0000
  16.250   1.0418   0.11780   0.11263  -0.0095   0.0344   1.0000
  16.500   1.0194   0.12585   0.12085  -0.0140   0.0348   1.0000
  16.750   0.9948   0.13510   0.13025  -0.0196   0.0353   1.0000
