  
       XFOIL         Version 6.96
  
 Calculated polar for: AH 79-K-143/18                                  
  
 1 1 Reynolds number fixed          Mach number fixed         
  
 xtrf =   1.000 (top)        1.000 (bottom)  
 Mach =   0.000     Re =     0.100 e 6     Ncrit =   9.000
  
   alpha    CL        CD       CDp       CM     Top_Xtr  Bot_Xtr
  ------ -------- --------- --------- -------- -------- --------
 -10.250  -0.3765   0.11180   0.10745  -0.0512   0.9879   0.1091
 -10.000  -0.3839   0.10806   0.10375  -0.0553   0.9846   0.1140
  -9.750  -0.4285   0.10332   0.09911  -0.0669   0.9804   0.1161
  -9.500  -0.3859   0.09930   0.09502  -0.0613   0.9802   0.1193
  -9.250  -0.3778   0.09661   0.09233  -0.0605   0.9777   0.1228
  -9.000  -0.2726   0.08234   0.07833  -0.0644   0.9635   0.1379
  -8.750  -0.2824   0.07888   0.07489  -0.0652   0.9612   0.1432
  -8.500  -0.3209   0.07428   0.07036  -0.0690   0.9587   0.1461
  -8.250  -0.3718   0.07057   0.06664  -0.0703   0.9560   0.1468
  -8.000  -0.4620   0.08031   0.07614  -0.0647   0.9604   0.1363
  -7.750  -0.4644   0.07759   0.07339  -0.0642   0.9576   0.1405
  -7.500  -0.4891   0.07564   0.07136  -0.0615   0.9540   0.1441
  -7.250  -0.5570   0.07735   0.07263  -0.0536   0.9494   0.1475
  -7.000  -0.5235   0.07083   0.06644  -0.0545   0.9479   0.1516
  -6.750  -0.5210   0.06843   0.06399  -0.0528   0.9454   0.1560
  -6.250  -0.5551   0.05140   0.04494  -0.0451   0.9421   0.0714
  -6.000  -0.5488   0.04819   0.04155  -0.0428   0.9404   0.0690
  -5.750  -0.5448   0.04538   0.03840  -0.0395   0.9385   0.0663
  -5.500  -0.5358   0.04300   0.03561  -0.0368   0.9366   0.0668
  -5.250  -0.5237   0.04112   0.03329  -0.0344   0.9354   0.0687
  -5.000  -0.5058   0.03893   0.03062  -0.0328   0.9333   0.0695
  -4.750  -0.4807   0.03707   0.02826  -0.0322   0.9304   0.0710
  -4.500  -0.4480   0.03539   0.02634  -0.0335   0.9272   0.0769
  -4.250  -0.4268   0.03442   0.02521  -0.0326   0.9252   0.0805
  -4.000  -0.4127   0.03384   0.02436  -0.0302   0.9230   0.0859
  -3.750  -0.3942   0.03274   0.02331  -0.0291   0.9203   0.0924
  -3.500  -0.3717   0.03217   0.02258  -0.0282   0.9174   0.1003
  -3.250  -0.3414   0.03141   0.02190  -0.0290   0.9136   0.1173
  -3.000  -0.3155   0.03075   0.02147  -0.0291   0.9093   0.1414
  -2.750  -0.3061   0.03021   0.02111  -0.0264   0.9072   0.1703
  -2.500  -0.2944   0.02947   0.02083  -0.0241   0.9041   0.2330
  -2.250  -0.2977   0.02737   0.02102  -0.0185   0.9017   0.6096
  -2.000   0.0504   0.03241   0.02556  -0.0658   0.8877   0.9786
  -1.750   0.1957   0.03152   0.02425  -0.0888   0.8850   1.0000
  -1.500   0.2349   0.03156   0.02415  -0.0919   0.8809   1.0000
  -1.250   0.2099   0.03250   0.02508  -0.0840   0.8729   1.0000
  -1.000   0.2375   0.03275   0.02522  -0.0849   0.8674   1.0000
  -0.750   0.2355   0.03346   0.02587  -0.0808   0.8600   1.0000
  -0.500   0.2528   0.03389   0.02623  -0.0799   0.8533   1.0000
  -0.250   0.2578   0.03454   0.02683  -0.0769   0.8454   1.0000
   0.000   0.2841   0.03493   0.02714  -0.0773   0.8389   1.0000
   0.250   0.2801   0.03566   0.02784  -0.0727   0.8294   1.0000
   0.500   0.2927   0.03621   0.02834  -0.0708   0.8208   1.0000
   0.750   0.3229   0.03660   0.02868  -0.0717   0.8142   1.0000
   1.000   0.3179   0.03724   0.02929  -0.0668   0.8037   1.0000
   1.250   0.3204   0.03784   0.02987  -0.0632   0.7943   1.0000
   1.500   0.3527   0.03821   0.03020  -0.0643   0.7885   1.0000
   1.750   0.3464   0.03875   0.03073  -0.0593   0.7775   1.0000
   2.000   0.3919   0.03901   0.03096  -0.0623   0.7732   1.0000
   2.250   0.3771   0.03956   0.03150  -0.0560   0.7615   1.0000
   2.500   0.4245   0.03980   0.03173  -0.0592   0.7581   1.0000
   2.750   0.4074   0.04033   0.03226  -0.0526   0.7460   1.0000
   3.000   0.4076   0.04082   0.03274  -0.0488   0.7361   1.0000
   3.250   0.4392   0.04101   0.03295  -0.0494   0.7309   1.0000
   3.500   0.4348   0.04155   0.03349  -0.0449   0.7205   1.0000
   3.750   0.4713   0.04163   0.03361  -0.0461   0.7161   1.0000
   4.000   0.4626   0.04225   0.03423  -0.0412   0.7053   1.0000
   4.250   0.5050   0.04213   0.03416  -0.0430   0.7014   1.0000
   4.500   0.4927   0.04284   0.03489  -0.0376   0.6900   1.0000
   4.750   0.5266   0.04277   0.03487  -0.0382   0.6851   1.0000
   5.000   0.5247   0.04328   0.03540  -0.0341   0.6747   1.0000
   5.250   0.5666   0.04301   0.03521  -0.0356   0.6716   1.0000
   5.500   0.5557   0.04371   0.03593  -0.0305   0.6596   1.0000
   5.750   0.5537   0.04440   0.03666  -0.0267   0.6493   1.0000
   6.000   0.5879   0.04407   0.03643  -0.0270   0.6444   1.0000
   6.250   0.5844   0.04488   0.03727  -0.0232   0.6333   1.0000
   6.500   0.6249   0.04419   0.03672  -0.0240   0.6290   1.0000
   6.750   0.6232   0.04503   0.03760  -0.0205   0.6171   1.0000
   7.000   0.6680   0.04397   0.03669  -0.0215   0.6134   1.0000
   7.250   0.6693   0.04481   0.03759  -0.0186   0.6010   1.0000
   7.500   0.6874   0.04489   0.03778  -0.0171   0.5912   1.0000
   7.750   0.7260   0.04375   0.03683  -0.0172   0.5850   1.0000
   8.000   0.7737   0.04186   0.03515  -0.0178   0.5808   1.0000
   8.750   0.9659   0.02636   0.02040  -0.0170   0.5292   1.0000
   9.000   0.9844   0.02523   0.01921  -0.0139   0.4890   1.0000
   9.250   0.9826   0.02563   0.01946  -0.0095   0.4390   1.0000
   9.500   0.9733   0.02675   0.02016  -0.0047   0.3631   1.0000
   9.750   0.9488   0.02919   0.02180   0.0008   0.2546   1.0000
  10.000   0.9241   0.03234   0.02416   0.0052   0.1645   1.0000
  10.250   0.9057   0.03552   0.02673   0.0088   0.1138   1.0000
  10.500   0.8993   0.03798   0.02898   0.0114   0.0931   1.0000
  10.750   0.8990   0.04005   0.03096   0.0135   0.0815   1.0000
  11.000   0.9041   0.04180   0.03264   0.0152   0.0734   1.0000
  11.250   0.9207   0.04294   0.03378   0.0167   0.0683   1.0000
  11.500   0.9437   0.04404   0.03473   0.0177   0.0615   1.0000
  11.750   0.9807   0.04505   0.03579   0.0180   0.0569   1.0000
  12.000   1.0223   0.04640   0.03728   0.0177   0.0540   1.0000
  12.250   1.0659   0.04841   0.03945   0.0170   0.0522   1.0000
  12.500   1.1045   0.05128   0.04252   0.0162   0.0509   1.0000
  12.750   1.1339   0.05485   0.04632   0.0159   0.0500   1.0000
  13.000   1.1507   0.05974   0.05152   0.0160   0.0489   1.0000
  13.250   1.1454   0.06242   0.05451   0.0181   0.0487   1.0000
  13.500   1.1503   0.06694   0.05935   0.0191   0.0490   1.0000
  13.750   1.1412   0.06875   0.06141   0.0213   0.0494   1.0000
  14.000   1.1268   0.07101   0.06397   0.0235   0.0500   1.0000
  14.250   1.0981   0.07421   0.06757   0.0258   0.0510   1.0000
  14.500   1.0630   0.07878   0.07253   0.0271   0.0519   1.0000
  14.750   1.0303   0.08415   0.07824   0.0274   0.0530   1.0000
  15.000   0.9994   0.09004   0.08440   0.0265   0.0541   1.0000
  15.250   0.9700   0.09637   0.09095   0.0247   0.0549   1.0000
  15.500   0.9396   0.10365   0.09841   0.0218   0.0558   1.0000
  15.750   0.9099   0.11177   0.10669   0.0178   0.0568   1.0000
  16.000   0.8814   0.12072   0.11575   0.0129   0.0577   1.0000
  16.250   0.9015   0.12391   0.11893   0.0141   0.0606   1.0000
  16.500   0.5697   0.15325   0.14893  -0.0068   0.1400   1.0000
  16.750   0.5344   0.15517   0.15078  -0.0122   0.1360   1.0000
